*Heading
** Job name: Job-4 Model name: Model-1-Copy-890000-HighMesh
** Generated by: Abaqus/CAE 2022
*Preprint, echo=NO, model=NO, history=NO, contact=NO
**
** PARTS
**
*Part, name=Composite
*End Part
**  
**
** ASSEMBLY
**
*Assembly, name=Assembly
**  
*Instance, name=Composite-1, part=Composite
*Node
      1,        32.75,        -8.75,           0.
      2,        32.75,        21.25,           0.
      3,        -5.25,        21.25,           0.
      4,       -31.25,        21.25,           0.
      5,       -31.25,        -8.75,           0.
      6,        -5.25,        -8.75,           0.
      7,       -18.25,          9.5,           0.
      8,       -18.25,         14.5,           0.
      9,       -18.25,           6.,           0.
     10,       -18.25,          2.5,           0.
     11,        58.75,        -8.75,           0.
     12,        58.75,        21.25,           0.
     13,        45.75,         14.5,           0.
     14,        45.75,          2.5,           0.
     15,        32.75,        -6.75,           0.
     16,        32.75,        -4.75,           0.
     17,        32.75,        -2.75,           0.
     18,        32.75,        -0.75,           0.
     19,        32.75,         1.25,           0.
     20,        32.75,         3.25,           0.
** ... 780 like lines cut
*Element, type=S3
1, 301, 293, 193
2, 384, 382, 357
3, 229, 385, 281
4, 431, 295, 386
5, 503, 452, 460
6, 524, 475, 491
7, 580, 371, 314
8, 600, 550, 599
502, 717, 645, 644
503, 686, 646, 645
504, 714, 647, 687
505, 746, 722, 721
506, 752, 709, 673
507, 761, 696, 695
508, 767, 707, 693
509, 798, 755, 776
*Element, type=S4
  9,  24, 284, 210,  23
 10, 172,  15,  16, 208
 11,  99, 100, 255, 203
 12, 407, 335, 343, 405
 13, 175, 189, 337, 341
 14, 263, 110, 197, 270
 15, 176, 112,  10, 119
 16, 269, 176, 119, 177
 17, 339, 218, 262, 336
 18, 220,  46,  47, 221
 19, 180,  49,  50, 222
 20, 180, 290, 308, 179
 21,  49, 180, 179,  48
 22, 574, 291, 225, 286
 23, 234,  65,  66, 235
 24,  73, 568, 183,  72
 25,  68, 237, 236,  67
 26, 367, 444, 185, 295
 27, 245, 418, 364, 186
 28, 249, 187, 318, 287
** ... 473 like lines cut
*Element, type=S4R
510, 625, 626,  23,  22
511,  15,   1, 120, 668
512, 637, 636,  20,  19
513, 167, 166, 613, 700
514, 125, 644, 645, 124
515, 642, 128, 129, 641
516, 685, 787, 717, 644
517, 650, 649, 726, 669
518, 665, 666, 149, 150
519, 663, 664, 151, 152
520, 616, 725, 703,  13
521, 670, 659,  28,  27
522, 671, 661, 660, 672
523,  27,  26, 631, 670
524, 659, 670, 672, 660
525, 626, 634,  24,  23
526, 673, 626, 625, 678
527, 624, 674,  14, 171
528, 619, 165,  14, 674
529, 728, 624, 708, 782
** ... 205 like lines cut
*Orientation, name=Ori-1
1., 0., 0., 0., 1., 0.
3, 0.
** Region: (CompositeLayup-1-1: Generated From Layup)
*Elset, elset=CompositeLayup-1-1, generate
   1,  501,    1
** Section: CompositeLayup-1-1
*Shell Section, elset=CompositeLayup-1-1, composite, orientation=Ori-1, offset=SPOS, layup=CompositeLayup-1
0.2, 3, Material-1, 0., Ply-1
0.2, 3, Material-1, 0., Ply-1-Copy18
0.2, 3, Material-1, 0., Ply-1-Copy17
0.2, 3, Material-1, 0., Ply-1-Copy16
0.2, 3, Material-1, 0., Ply-1-Copy15
0.2, 3, Material-1, 0., Ply-1-Copy14
0.2, 3, Material-1, 0., Ply-1-Copy13
0.2, 3, Material-1, 0., Ply-1-Copy12
0.2, 3, Material-1, 0., Ply-1-Copy11
0.2, 3, Material-1, 0., Ply-1-Copy10
0.2, 3, Material-1, 0., Ply-1-Copy9
0.2, 3, Material-1, 0., Ply-1-Copy8
0.2, 3, Material-1, 0., Ply-1-Copy7
0.2, 3, Material-1, 0., Ply-1-Copy6
0.2, 3, Material-1, 0., Ply-1-Copy5
0.2, 3, Material-1, 0., Ply-1-Copy4
*Transverse Shear Stiffness
1000., 1000., 0.
*Orientation, name=Ori-2
1., 0., 0., 0., 1., 0.
3, 0.
** Region: (CompositeLayup-1-Simple-1: Generated From Layup)
*Elset, elset=CompositeLayup-1-Simple-1, generate
 502,  734,    1
** Section: CompositeLayup-1-Simple-1
*Shell Section, elset=CompositeLayup-1-Simple-1, composite, orientation=Ori-2, offset=SPOS, layup=CompositeLayup-1-Simple
0.2, 3, Material-Simple, 0., Ply-1
0.2, 3, Material-Simple, 0., Ply-1-Copy18
0.2, 3, Material-Simple, 0., Ply-1-Copy17
0.2, 3, Material-Simple, 0., Ply-1-Copy16
0.2, 3, Material-Simple, 0., Ply-1-Copy15
0.2, 3, Material-Simple, 0., Ply-1-Copy14
0.2, 3, Material-Simple, 0., Ply-1-Copy13
0.2, 3, Material-Simple, 0., Ply-1-Copy12
0.2, 3, Material-Simple, 0., Ply-1-Copy11
0.2, 3, Material-Simple, 0., Ply-1-Copy10
0.2, 3, Material-Simple, 0., Ply-1-Copy9
0.2, 3, Material-Simple, 0., Ply-1-Copy8
0.2, 3, Material-Simple, 0., Ply-1-Copy7
0.2, 3, Material-Simple, 0., Ply-1-Copy6
0.2, 3, Material-Simple, 0., Ply-1-Copy5
0.2, 3, Material-Simple, 0., Ply-1-Copy4
*Transverse Shear Stiffness
1000., 1000., 0.
*End Instance
**  
*Nset, nset=Set-6, instance=Composite-1
 11,
*Nset, nset=Set-7, instance=Composite-1
  11,  12, 132, 133, 134, 135, 136, 137, 138, 139, 140, 141, 142, 143, 144, 145
*Elset, elset=Set-7, instance=Composite-1
 530, 534, 535, 545, 553, 555, 558, 559, 570, 600, 601, 605, 606, 614, 649
*Nset, nset=Set-8, instance=Composite-1
   1,   2,  11,  12,  13,  14,  15,  16,  17,  18,  19,  20,  21,  22,  23,  24
  25,  26,  27,  28, 120, 121, 122, 123, 124, 125, 126, 127, 128, 129, 130, 131
 132, 133, 134, 135, 136, 137, 138, 139, 140, 141, 142, 143, 144, 145, 146, 147
 148, 149, 150, 151, 152, 153, 154, 155, 156, 157, 158, 159, 160, 161, 162, 163
 164, 165, 166, 167, 168, 169, 170, 171, 609, 610, 611, 612, 613, 614, 615, 616
 617, 618, 619, 620, 621, 622, 623, 624, 625, 626, 627, 628, 629, 630, 631, 632
 633, 634, 635, 636, 637, 638, 639, 640, 641, 642, 643, 644, 645, 646, 647, 648
 649, 650, 651, 652, 653, 654, 655, 656, 657, 658, 659, 660, 661, 662, 663, 664
 665, 666, 667, 668, 669, 670, 671, 672, 673, 674, 675, 676, 677, 678, 679, 680
 681, 682, 683, 684, 685, 686, 687, 688, 689, 690, 691, 692, 693, 694, 695, 696
 697, 698, 699, 700, 701, 702, 703, 704, 705, 706, 707, 708, 709, 710, 711, 712
 713, 714, 715, 716, 717, 718, 719, 720, 721, 722, 723, 724, 725, 726, 727, 728
 729, 730, 731, 732, 733, 734, 735, 736, 737, 738, 739, 740, 741, 742, 743, 744
 745, 746, 747, 748, 749, 750, 751, 752, 753, 754, 755, 756, 757, 758, 759, 760
 761, 762, 763, 764, 765, 766, 767, 768, 769, 770, 771, 772, 773, 774, 775, 776
 777, 778, 779, 780, 781, 782, 783, 784, 785, 786, 787, 788, 789, 790, 791, 792
 793, 794, 795, 796, 797, 798, 799, 800
*Elset, elset=Set-8, instance=Composite-1, generate
 502,  734,    1
*Nset, nset=Set-9, instance=Composite-1
 9,
*Nset, nset=Set-10, instance=Composite-1
  11,  12, 132, 133, 134, 135, 136, 137, 138, 139, 140, 141, 142, 143, 144, 145
*Elset, elset=Set-10, instance=Composite-1
 530, 534, 535, 545, 553, 555, 558, 559, 570, 600, 601, 605, 606, 614, 649
*Nset, nset=Set-12, instance=Composite-1
   1,   2,  11,  12,  13,  14,  15,  16,  17,  18,  19,  20,  21,  22,  23,  24
  25,  26,  27,  28, 120, 121, 122, 123, 124, 125, 126, 127, 128, 129, 130, 131
 132, 133, 134, 135, 136, 137, 138, 139, 140, 141, 142, 143, 144, 145, 146, 147
 148, 149, 150, 151, 152, 153, 154, 155, 156, 157, 158, 159, 160, 161, 162, 163
 164, 165, 166, 167, 168, 169, 170, 171, 609, 610, 611, 612, 613, 614, 615, 616
 617, 618, 619, 620, 621, 622, 623, 624, 625, 626, 627, 628, 629, 630, 631, 632
 633, 634, 635, 636, 637, 638, 639, 640, 641, 642, 643, 644, 645, 646, 647, 648
 649, 650, 651, 652, 653, 654, 655, 656, 657, 658, 659, 660, 661, 662, 663, 664
 665, 666, 667, 668, 669, 670, 671, 672, 673, 674, 675, 676, 677, 678, 679, 680
 681, 682, 683, 684, 685, 686, 687, 688, 689, 690, 691, 692, 693, 694, 695, 696
 697, 698, 699, 700, 701, 702, 703, 704, 705, 706, 707, 708, 709, 710, 711, 712
 713, 714, 715, 716, 717, 718, 719, 720, 721, 722, 723, 724, 725, 726, 727, 728
 729, 730, 731, 732, 733, 734, 735, 736, 737, 738, 739, 740, 741, 742, 743, 744
 745, 746, 747, 748, 749, 750, 751, 752, 753, 754, 755, 756, 757, 758, 759, 760
 761, 762, 763, 764, 765, 766, 767, 768, 769, 770, 771, 772, 773, 774, 775, 776
 777, 778, 779, 780, 781, 782, 783, 784, 785, 786, 787, 788, 789, 790, 791, 792
 793, 794, 795, 796, 797, 798, 799, 800
*Elset, elset=Set-12, instance=Composite-1, generate
 502,  734,    1
*End Assembly
*Amplitude, name=Amp-1, definition=SMOOTH STEP
             0.,              0.,           0.025,              1.,            0.05,              0.,           0.075,             -1.
            0.1,              0.,           0.125,              1.,            0.15,              0.,           0.175,             -1.
            0.2,              0.,           0.225,              1.,            0.25,              0.,           0.275,             -1.
            0.3,              0.,           0.325,              1.,            0.35,              0.,           0.375,             -1.
            0.4,              0.,           0.425,              1.,            0.45,              0.,           0.475,             -1.
            0.5,              0.,           0.525,              1.,            0.55,              0.,           0.575,             -1.
            0.6,              0.,           0.625,              1.,            0.65,              0.,           0.675,             -1.
            0.7,              0.
*Amplitude, name=Periodic, time=TOTAL TIME, definition=PERIODIC
1,            62.8,              0.,              0.
             0.,              1.
** 
** MATERIALS
** 
*Material, name=Material-1
*Density
 1.6e-09,
*Depvar
     80,
*User Material, constants=1
0.,
*Material, name=Material-Simple
*Density
 7.8e-09,
*Elastic, type=LAMINA
37030.,37000.,  0.29, 2370., 2370., 2370.
*Fail Stress
720.,720.,720.,720.,360.,  0.,  0.
** 
** BOUNDARY CONDITIONS
** 
** Name: Fixe Type: Symmetry/Antisymmetry/Encastre
*Boundary
Set-12, ENCASTRE
** ----------------------------------------------------------------
** 
** STEP: Step-1
** 
*Step, name=Step-1, nlgeom=NO
*Static
0.01, 0.1, 1e-06, 0.01
** 
** BOUNDARY CONDITIONS
** 
** Name: Displacement Type: Displacement/Rotation
*Boundary, amplitude=Periodic
Set-9, 3, 3, 2.
** 
** OUTPUT REQUESTS
** 
*Restart, write, number interval=1, time marks=NO
** 
** FIELD OUTPUT: F-Output-1
** 
*Output, field, number interval=20, time marks=NO
*Node Output
CF, RF, U
*Element Output, directions=YES
LE, PE, PEEQ, PEMAG, S, SDV
*Contact Output
CDISP, CSTRESS
** 
** HISTORY OUTPUT: H-Output-1
** 
*Output, history, variable=PRESELECT
*End Step
** ----------------------------------------------------------------
** 
** STEP: Step-2
** 
*Step, name=Step-2, nlgeom=NO
*Static
0.01, 0.1, 1e-06, 0.01
** 
** OUTPUT REQUESTS
** 
*Restart, write, number interval=1, time marks=NO
** 
** FIELD OUTPUT: F-Output-1
** 
*Output, field, number interval=20, time marks=NO
*Node Output
CF, RF, U
*Element Output, directions=YES
LE, PE, PEEQ, PEMAG, S, SDV
*Contact Output
CDISP, CSTRESS
** 
** HISTORY OUTPUT: H-Output-1
** 
*Output, history, variable=PRESELECT
*End Step
** ----------------------------------------------------------------
** 
** STEP: Step-3
** 
*Step, name=Step-3, nlgeom=NO
*Static
0.01, 0.1, 1e-06, 0.01
** 
** OUTPUT REQUESTS
** 
*Restart, write, number interval=1, time marks=NO
** 
** FIELD OUTPUT: F-Output-1
** 
*Output, field, number interval=20, time marks=NO
*Node Output
CF, RF, U
*Element Output, directions=YES
LE, PE, PEEQ, PEMAG, S, SDV
*Contact Output
CDISP, CSTRESS
** 
** HISTORY OUTPUT: H-Output-1
** 
*Output, history, variable=PRESELECT
*End Step
** ----------------------------------------------------------------
** 
** STEP: Step-4
** 
*Step, name=Step-4, nlgeom=NO
*Static
0.01, 0.1, 1e-06, 0.01
** 
** OUTPUT REQUESTS
** 
*Restart, write, number interval=1, time marks=NO
** 
** FIELD OUTPUT: F-Output-1
** 
*Output, field, number interval=20, time marks=NO
*Node Output
CF, RF, U
*Element Output, directions=YES
LE, PE, PEEQ, PEMAG, S, SDV
*Contact Output
CDISP, CSTRESS
** 
** HISTORY OUTPUT: H-Output-1
** 
*Output, history, variable=PRESELECT
*End Step
** ----------------------------------------------------------------
** 
** STEP: Step-5
** 
*Step, name=Step-5, nlgeom=NO
*Static
0.01, 0.1, 1e-06, 0.01
** 
** OUTPUT REQUESTS
** 
*Restart, write, number interval=1, time marks=NO
** 
** FIELD OUTPUT: F-Output-1
** 
*Output, field, number interval=20, time marks=NO
*Node Output
CF, RF, U
*Element Output, directions=YES
LE, PE, PEEQ, PEMAG, S, SDV
*Contact Output
CDISP, CSTRESS
** 
** HISTORY OUTPUT: H-Output-1
** 
*Output, history, variable=PRESELECT
*End Step
** ----------------------------------------------------------------
** 
** STEP: Step-6
** 
*Step, name=Step-6, nlgeom=NO
*Static
0.01, 0.1, 1e-06, 0.01
** 
** OUTPUT REQUESTS
** 
*Restart, write, number interval=1, time marks=NO
** 
** FIELD OUTPUT: F-Output-1
** 
*Output, field, number interval=20, time marks=NO
*Node Output
CF, RF, U
*Element Output, directions=YES
LE, PE, PEEQ, PEMAG, S, SDV
*Contact Output
CDISP, CSTRESS
** 
** HISTORY OUTPUT: H-Output-1
** 
*Output, history, variable=PRESELECT
*End Step
** ----------------------------------------------------------------
** 
** STEP: Step-7
** 
*Step, name=Step-7, nlgeom=NO
*Static
0.01, 0.1, 1e-06, 0.01
** 
** OUTPUT REQUESTS
** 
*Restart, write, number interval=1, time marks=NO
** 
** FIELD OUTPUT: F-Output-1
** 
*Output, field, number interval=20, time marks=NO
*Node Output
CF, RF, U
*Element Output, directions=YES
LE, PE, PEEQ, PEMAG, S, SDV
*Contact Output
CDISP, CSTRESS
** 
** HISTORY OUTPUT: H-Output-1
** 
*Output, history, variable=PRESELECT
*End Step
** ----------------------------------------------------------------
** 
** STEP: Step-8
** 
*Step, name=Step-8, nlgeom=NO
*Static
0.01, 0.1, 1e-06, 0.01
** 
** OUTPUT REQUESTS
** 
*Restart, write, frequency=0
** 
** FIELD OUTPUT: F-Output-1
** 
*Output, field, number interval=20, time marks=NO
*Node Output
CF, RF, U
*Element Output, directions=YES
LE, PE, PEEQ, PEMAG, S, SDV
*Contact Output
CDISP, CSTRESS
** 
** HISTORY OUTPUT: H-Output-1
** 
*Output, history, variable=PRESELECT
*End Step
** ----------------------------------------------------------------
** 
** STEP: Step-9
** 
*Step, name=Step-9, nlgeom=NO
*Static
0.01, 0.1, 1e-06, 0.01
** 
** OUTPUT REQUESTS
** 
*Restart, write, frequency=0
** 
** FIELD OUTPUT: F-Output-1
** 
*Output, field, number interval=20, time marks=NO
*Node Output
CF, RF, U
*Element Output, directions=YES
LE, PE, PEEQ, PEMAG, S, SDV
*Contact Output
CDISP, CSTRESS
** 
** HISTORY OUTPUT: H-Output-1
** 
*Output, history, variable=PRESELECT
*End Step
** ----------------------------------------------------------------
** 
** STEP: Step-10
** 
*Step, name=Step-10, nlgeom=NO
*Static
0.01, 0.1, 1e-06, 0.01
** 
** OUTPUT REQUESTS
** 
*Restart, write, frequency=0
** 
** FIELD OUTPUT: F-Output-1
** 
*Output, field, number interval=20, time marks=NO
*Node Output
CF, RF, U
*Element Output, directions=YES
LE, PE, PEEQ, PEMAG, S, SDV
*Contact Output
CDISP, CSTRESS
** 
** HISTORY OUTPUT: H-Output-1
** 
*Output, history, variable=PRESELECT
*End Step
** ----------------------------------------------------------------
** 
** STEP: Step-11
** 
*Step, name=Step-11, nlgeom=NO
*Static
0.01, 0.1, 1e-06, 0.01
** 
** OUTPUT REQUESTS
** 
*Restart, write, frequency=0
** 
** FIELD OUTPUT: F-Output-1
** 
*Output, field, number interval=20, time marks=NO
*Node Output
CF, RF, U
*Element Output, directions=YES
LE, PE, PEEQ, PEMAG, S, SDV
*Contact Output
CDISP, CSTRESS
** 
** HISTORY OUTPUT: H-Output-1
** 
*Output, history, variable=PRESELECT
*End Step
** ----------------------------------------------------------------
** 
** STEP: Step-12
** 
*Step, name=Step-12, nlgeom=NO
*Static
0.01, 0.1, 1e-06, 0.01
** 
** OUTPUT REQUESTS
** 
*Restart, write, frequency=0
** 
** FIELD OUTPUT: F-Output-1
** 
*Output, field, number interval=20, time marks=NO
*Node Output
CF, RF, U
*Element Output, directions=YES
LE, PE, PEEQ, PEMAG, S, SDV
*Contact Output
CDISP, CSTRESS
** 
** HISTORY OUTPUT: H-Output-1
** 
*Output, history, variable=PRESELECT
*End Step
** ----------------------------------------------------------------
** 
** STEP: Step-13
** 
*Step, name=Step-13, nlgeom=NO
*Static
0.01, 0.1, 1e-06, 0.01
** 
** OUTPUT REQUESTS
** 
*Restart, write, frequency=0
** 
** FIELD OUTPUT: F-Output-1
** 
*Output, field, number interval=20, time marks=NO
*Node Output
CF, RF, U
*Element Output, directions=YES
LE, PE, PEEQ, PEMAG, S, SDV
*Contact Output
CDISP, CSTRESS
** 
** HISTORY OUTPUT: H-Output-1
** 
*Output, history, variable=PRESELECT
*End Step
** ----------------------------------------------------------------
** 
** STEP: Step-14
** 
*Step, name=Step-14, nlgeom=NO
*Static
0.01, 0.1, 1e-06, 0.01
** 
** OUTPUT REQUESTS
** 
*Restart, write, frequency=0
** 
** FIELD OUTPUT: F-Output-1
** 
*Output, field, number interval=20, time marks=NO
*Node Output
CF, RF, U
*Element Output, directions=YES
LE, PE, PEEQ, PEMAG, S, SDV
*Contact Output
CDISP, CSTRESS
** 
** HISTORY OUTPUT: H-Output-1
** 
*Output, history, variable=PRESELECT
*End Step
** ----------------------------------------------------------------
** 
** STEP: Step-15
** 
*Step, name=Step-15, nlgeom=NO
*Static
0.01, 0.1, 1e-06, 0.01
** 
** OUTPUT REQUESTS
** 
*Restart, write, frequency=0
** 
** FIELD OUTPUT: F-Output-1
** 
*Output, field, number interval=20, time marks=NO
*Node Output
CF, RF, U
*Element Output, directions=YES
LE, PE, PEEQ, PEMAG, S, SDV
*Contact Output
CDISP, CSTRESS
** 
** HISTORY OUTPUT: H-Output-1
** 
*Output, history, variable=PRESELECT
*End Step
